*Heading
 Job for Model
** Job name: 20 Model name: MODEL20
** Generated by: Abaqus/CAE 2020
*Preprint, echo=NO, model=NO, history=NO, contact=NO
**
** PARTS
**
*Part, name=PART20
*Node
      1,   115.329483,    10.484499,           4.
      2,   115.329483,   9.43604851,           4.
      3,   115.329483,   9.43604851,           0.
      4,   115.329483,    10.484499,           0.
      5,    113.23259,   9.43604851,           4.
      6,    113.23259,   9.43604851,           0.
      7,    113.23259,    10.484499,           0.
      8,    113.23259,    10.484499,           4.
      9,   66.0523453,   28.3081474,           4.
     10,   66.0523453,    27.259697,           4.
     11,   66.0523453,    27.259697,           0.
     12,   66.0523453,   28.3081474,           0.
     13,    65.003891,    27.259697,           4.
     14,    65.003891,    27.259697,           0.
     15,    65.003891,   28.3081474,           0.
     16,    65.003891,   28.3081474,           4.
     17,   133.153137,   31.4534969,           4.
     18,   133.153137,    33.550396,           4.
     19,   133.153137,    33.550396,           0.
     20,   133.153137,   31.4534969,           0.
** ... 13692 like lines cut
*Element, type=C3D8R
1, 8, 5, 6, 7, 1, 2, 3, 4
2, 16, 13, 14, 15,  9, 10, 11, 12
3, 24, 21, 22, 23, 17, 18, 19, 20
4, 32, 29, 30, 31, 25, 26, 27, 28
5, 40, 37, 38, 39, 33, 34, 35, 36
6, 874, 876, 875, 873,  41,  42,  43,  44
7,  48,  45,  46,  47, 874, 876, 875, 873
8, 56, 53, 54, 55, 49, 50, 51, 52
 9, 877,  57,  64,  63, 880,  72,  65,  66
10, 878,  60,  59,  58, 879,  69,  70,  71
11,  60, 878, 877,  63,  69, 879, 880,  66
12,  62,  61,  60,  63,  67,  68,  69,  66
  13,  2404,  4113,  4298,  4408,  8520, 10229, 10414, 10524
  14,  2403,  4537,  3877,  4653,  8519, 10653,  9993, 10769
  15,  6378,   300,  2689,  2818, 12494,   713,  8805,  8934
  16,  1050,  6378,  2818,  2972,  1341, 12494,  8934,  9088
  17,   300,  6378,  1050,   301,   713, 12494,  1341,   712
  18,  2414,  3812,  3951,  3911,  8530,  9928, 10067, 10027
  19,  4653,  3658,  3730,  2403, 10769,  9774,  9846,  8519
  20,  6468,  3071,  2971,  2393, 12584,  9187,  9087,  8509
** ... 6464 like lines cut
*Nset, nset=_PickedSet306, internal, generate
     1,  13712,      1
*Elset, elset=_PickedSet306, internal, generate
    1,  6484,     1
** Section: SteelSection
*Solid Section, elset=_PickedSet306, material=Steel
,
*End Part
**  
**
** ASSEMBLY
**
*Assembly, name=Assembly
**  
*Instance, name=ASSEMBLY20, part=PART20
*End Instance
**  
*Node
      1,   67.1007919,   134.201584,           2.
*Node
      2,   67.1007919,           0.,           2.
*Nset, nset=BottomNodes, instance=ASSEMBLY20
  146,  147,  236,  237,  534,  535,  776,  777,  909,  910,  911,  912,  913,  914,  915,  916
  917,  918,  919,  920,  921,  922,  923,  924,  925,  926,  927,  928,  929,  930,  931,  932
  933,  954,  955,  956,  957,  958,  959,  960,  961,  962,  963,  964,  965,  966,  967,  968
  969,  970,  971,  972,  973,  974,  975,  976, 1192, 1193, 1194, 1195, 1196, 1197, 1198, 1199
 1200, 1201, 1202, 1203, 1204, 1205, 1206, 1207, 1208, 1209, 1210, 1211, 1212, 1213, 1214, 1215
 1216, 1415, 1416, 1417, 1418, 1419, 1420, 1421, 1422, 1423, 1424, 1425, 1426, 1427, 1428, 1429
 1430, 1431, 1432, 1433, 1434, 1435, 1436, 1437
*Nset, nset=IntermediateNodes, instance=ASSEMBLY20
     1,     2,     3,     4,     5,     6,     7,     8,     9,    10,    11,    12,    13,    14,    15,    16
    17,    18,    19,    20,    21,    22,    23,    24,    25,    26,    27,    28,    29,    30,    31,    32
    33,    34,    35,    36,    37,    38,    39,    40,    41,    42,    43,    44,    45,    46,    47,    48
    49,    50,    51,    52,    53,    54,    55,    56,    57,    58,    59,    60,    61,    62,    63,    64
    65,    66,    67,    68,    69,    70,    71,    72,    73,    74,    75,    76,    77,    78,    79,    80
    81,    82,    83,    84,    85,    86,    87,    88,    89,    90,    91,    92,    93,    94,    95,    96
    97,    98,    99,   100,   101,   102,   103,   104,   105,   106,   107,   108,   109,   110,   111,   112
   113,   114,   115,   116,   117,   118,   119,   120,   121,   122,   123,   124,   125,   126,   127,   128
   129,   130,   131,   132,   133,   134,   135,   136,   137,   138,   139,   140,   141,   142,   143,   144
   145,   148,   149,   150,   151,   152,   153,   154,   155,   156,   157,   158,   159,   160,   161,   162
   163,   164,   165,   166,   167,   168,   169,   170,   171,   172,   173,   174,   175,   176,   177,   178
   179,   180,   181,   182,   183,   184,   185,   186,   187,   188,   189,   190,   191,   192,   193,   194
   195,   196,   197,   198,   199,   200,   201,   202,   203,   204,   205,   206,   207,   208,   209,   210
   211,   212,   213,   214,   215,   216,   217,   218,   219,   220,   221,   222,   223,   224,   225,   226
   227,   228,   229,   230,   231,   232,   233,   234,   235,   238,   239,   240,   241,   242,   243,   244
   245,   246,   247,   248,   249,   250,   251,   252,   253,   254,   255,   256,   257,   258,   259,   260
   261,   262,   263,   264,   265,   266,   267,   268,   269,   270,   271,   272,   273,   274,   275,   276
   277,   278,   279,   280,   281,   282,   283,   284,   285,   286,   287,   288,   289,   290,   291,   292
   293,   294,   295,   296,   297,   298,   299,   300,   301,   302,   303,   304,   305,   308,   309,   310
   311,   312,   313,   314,   315,   316,   317,   318,   319,   320,   321,   322,   323,   324,   325,   326
** ... 826 like lines cut
*Nset, nset=RP_Bottom
 2,
*Nset, nset=RP_Top
 1,
*Nset, nset=TopNodes, instance=ASSEMBLY20
  306,  307,  364,  365,  648,  649,  706,  707, 1053, 1054, 1055, 1056, 1057, 1058, 1059, 1060
 1061, 1062, 1063, 1064, 1065, 1066, 1067, 1068, 1069, 1093, 1094, 1095, 1096, 1097, 1098, 1099
 1100, 1101, 1102, 1103, 1104, 1105, 1106, 1107, 1108, 1283, 1284, 1285, 1286, 1287, 1288, 1289
 1290, 1291, 1292, 1293, 1294, 1295, 1296, 1297, 1298, 1322, 1323, 1324, 1325, 1326, 1327, 1328
 1329, 1330, 1331, 1332, 1333, 1334, 1335, 1336, 1337, 1338
*Nset, nset=_PickedSet7, internal
 1,
*Nset, nset=_PickedSet8, internal
 2,
*Surface, type=NODE, name=BottomNodes_CNS_, internal
BottomNodes, 1.
*Surface, type=NODE, name=TopNodes_CNS_, internal
TopNodes, 1.
** Constraint: BottomCoupling
*Coupling, constraint name=BottomCoupling, ref node=_PickedSet8, surface=BottomNodes_CNS_
*Kinematic
** Constraint: TopCoupling
*Coupling, constraint name=TopCoupling, ref node=_PickedSet7, surface=TopNodes_CNS_
*Kinematic
*End Assembly
*Amplitude, name=LoadAmplitude
             0.,              0.,              1.,              4.,              2.,              0.,              3.,             -4.
             4.,              0.
** 
** MATERIALS
** 
*Material, name=Steel
*Elastic
210000., 0.3
*Plastic
235.,0.
** 
** BOUNDARY CONDITIONS
** 
** Name: FixBottomRP Type: /
*Boundary
RP_Bottom, 1, 1
RP_Bottom, 2, 2
RP_Bottom, 3, 3
RP_Bottom, 4, 4
RP_Bottom, 5, 5
RP_Bottom, 6, 6
** Name: RestrictZIntermediateNodes Type: /
*Boundary
IntermediateNodes, 3, 3
IntermediateNodes, 4, 4
IntermediateNodes, 5, 5
** ----------------------------------------------------------------
** 
** STEP: Step1
** 
*Step, name=Step1, nlgeom=YES, inc=500
Step to apply x-direction load on RP_Top
*Static
0.01, 4., 1e-10, 0.1
** 
** BOUNDARY CONDITIONS
** 
** Name: LoadTopRP Type: /
*Boundary, amplitude=LoadAmplitude
RP_Top, 1, 1, 1.
RP_Top, 2, 2
RP_Top, 3, 3
RP_Top, 4, 4
RP_Top, 5, 5
RP_Top, 6, 6
** 
** OUTPUT REQUESTS
** 
*Restart, write, frequency=0
** 
** FIELD OUTPUT: MisesAndDisplacement
** 
*Output, field, time interval=1.
*Node Output
U, 
*Element Output, directions=YES
S, 
** 
** FIELD OUTPUT: RP_Top_Output
** 
*Output, field, number interval=64
*Node Output, nset=RP_Top
RF, U
*Output, history, frequency=0
*End Step
