*Heading
** Job name: 20 Model name: MODEL20
** Generated by: Abaqus/CAE 2020
*Preprint, echo=NO, model=NO, history=NO, contact=NO
**
** PARTS
**
*Part, name=PART20
*Node
      1,   31.2564545,   224.655762,           4.
      2,   31.2564545,    222.70224,           4.
      3,   31.2564545,    222.70224,           0.
      4,   31.2564545,   224.655762,           0.
      5,   29.3029251,    222.70224,           4.
      6,   29.3029251,    222.70224,           0.
      7,   29.3029251,   224.655762,           0.
      8,   29.3029251,   224.655762,           4.
      9,   214.888123,    91.815834,           4.
     10,   214.888123,   89.8623047,           4.
     11,   214.888123,   89.8623047,           0.
     12,   214.888123,    91.815834,           0.
     13,   212.934601,   89.8623047,           4.
     14,   212.934601,   89.8623047,           0.
     15,   212.934601,    91.815834,           0.
     16,   212.934601,    91.815834,           4.
     17,    52.745266,   99.6299515,           4.
     18,    52.745266,   97.6764221,           4.
     19,    52.745266,   97.6764221,           0.
     20,    52.745266,   99.6299515,           0.
** ... 25560 like lines cut
*Element, type=C3D8R
1, 8, 5, 6, 7, 1, 2, 3, 4
2, 16, 13, 14, 15,  9, 10, 11, 12
3, 24, 21, 22, 23, 17, 18, 19, 20
4, 1088, 1090, 1089, 1087,   25,   26,   27,   28
5,   32,   29,   30,   31, 1088, 1090, 1089, 1087
6, 40, 37, 38, 39, 33, 34, 35, 36
7, 48, 45, 46, 47, 41, 42, 43, 44
    8,   194,  1208,  6064,   189,   710,  2163, 17349,   709
    9,  6064,  8085,  7968,  5999, 17349, 19370, 19253, 17284
   10,  9449,  3148,  7393, 12439, 20734, 14433, 18678, 23724
   11,   297,  1306,  5027,  1307,   823,  2274, 16312,  2273
   12,  3120,  7300,  6973,  9058, 14405, 18585, 18258, 20343
   13,  3118,  8054,  7251, 12636, 14403, 19339, 18536, 23921
   14, 12668,  7666,  7563,  7252, 23953, 18951, 18848, 18537
   15,  8918, 13029, 12668,  3145, 20203, 24314, 23953, 14430
   16, 10262,  3143,  9700, 13181, 21547, 14428, 20985, 24466
   17, 10577,  9844, 10011, 10393, 21862, 21129, 21296, 21678
   18,  8270,  9235, 10055,  3141, 19555, 20520, 21340, 14426
   19,  8162,  8036,  9235,  8270, 19447, 19321, 20520, 19555
   20, 13876,  3112,  8162,  8271, 25161, 14397, 19447, 19556
** ... 12022 like lines cut
*Nset, nset=_PickedSet382, internal, generate
     1,  25580,      1
*Elset, elset=_PickedSet382, internal, generate
     1,  12042,      1
** Section: SteelSection
*Solid Section, elset=_PickedSet382, material=Steel
,
*End Part
**  
**
** ASSEMBLY
**
*Assembly, name=Assembly
**  
*Instance, name=ASSEMBLY20, part=PART20
*End Instance
**  
*Node
      1,   125.025818,   250.051636,           2.
*Node
      2,   125.025818,           0.,           2.
*Nset, nset=BottomNodes, instance=ASSEMBLY20
  565,  566, 1084, 1085, 1679, 1680, 1681, 1682, 1683, 1684, 1685, 1686, 1687, 1688, 1689, 1690
 1691, 1692, 1693, 1694, 1695, 1696, 1697, 1698, 1699, 1700, 1701, 1702, 1703, 1704, 1705, 1706
 1707, 1708, 1709, 1710, 1711, 1712, 1713, 1714, 1715, 1716, 1717, 1718, 1719, 1720, 1721, 1722
 1723, 1724, 1725, 1726, 1727, 1728, 1729, 1730, 1731, 1732, 1733, 1734, 1735, 1736, 1737, 1738
 1739, 1740, 1741, 1742, 1743, 1744, 1745, 1746, 1747, 1748, 1749, 1750, 1751, 1752, 1753, 1754
 1755, 1756, 1757, 1758, 1759, 1760, 1761, 1762, 1763, 1764, 1765, 1766, 1767, 1768, 1769, 1770
 1771, 1772, 1773, 1774, 1775, 1776, 1777, 1778, 1779, 1780, 1781, 1782, 1783, 1784, 1785, 1786
 1787, 1788, 1789, 1790, 1791, 1792, 1793, 1794, 1795, 1796, 1797, 1798, 1799, 1800, 1801, 1802
 2639, 2640, 2641, 2642, 2643, 2644, 2645, 2646, 2647, 2648, 2649, 2650, 2651, 2652, 2653, 2654
 2655, 2656, 2657, 2658, 2659, 2660, 2661, 2662, 2663, 2664, 2665, 2666, 2667, 2668, 2669, 2670
 2671, 2672, 2673, 2674, 2675, 2676, 2677, 2678, 2679, 2680, 2681, 2682, 2683, 2684, 2685, 2686
 2687, 2688, 2689, 2690, 2691, 2692, 2693, 2694, 2695, 2696, 2697, 2698, 2699, 2700, 2701, 2702
 2703, 2704, 2705, 2706, 2707, 2708, 2709, 2710, 2711, 2712, 2713, 2714, 2715, 2716, 2717, 2718
 2719, 2720, 2721, 2722, 2723, 2724, 2725, 2726, 2727, 2728, 2729, 2730, 2731, 2732, 2733, 2734
 2735, 2736, 2737, 2738, 2739, 2740, 2741, 2742, 2743, 2744, 2745, 2746, 2747, 2748, 2749, 2750
 2751, 2752, 2753, 2754, 2755, 2756, 2757, 2758, 2759, 2760, 2761, 2762
*Nset, nset=IntermediateNodes, instance=ASSEMBLY20
     1,     2,     3,     4,     5,     6,     7,     8,     9,    10,    11,    12,    13,    14,    15,    16
    17,    18,    19,    20,    21,    22,    23,    24,    25,    26,    27,    28,    29,    30,    31,    32
    33,    34,    35,    36,    37,    38,    39,    40,    41,    42,    43,    44,    45,    46,    47,    48
    49,    50,    51,    52,    53,    54,    55,    56,    57,    58,    59,    60,    61,    62,    63,    64
    65,    66,    67,    68,    69,    70,    71,    72,    73,    74,    75,    76,    77,    78,    79,    80
    81,    82,    83,    84,    85,    86,    87,    88,    89,    90,    91,    92,    93,    94,    95,    96
    97,    98,    99,   100,   101,   102,   103,   104,   105,   106,   107,   108,   109,   110,   111,   112
   113,   114,   115,   116,   117,   118,   119,   120,   121,   122,   123,   124,   125,   126,   127,   128
   129,   130,   131,   132,   133,   134,   135,   136,   137,   138,   139,   140,   141,   142,   143,   144
   145,   146,   147,   148,   149,   150,   151,   152,   153,   154,   155,   156,   157,   158,   159,   160
   161,   162,   163,   164,   165,   166,   167,   168,   169,   170,   171,   172,   173,   174,   175,   176
   177,   178,   179,   180,   181,   182,   183,   184,   185,   186,   187,   188,   189,   190,   191,   192
   193,   194,   195,   196,   197,   198,   199,   200,   201,   202,   203,   204,   205,   206,   207,   208
   209,   210,   211,   212,   213,   214,   215,   216,   217,   218,   219,   220,   221,   222,   223,   224
   225,   226,   227,   228,   229,   230,   231,   232,   233,   234,   235,   236,   237,   238,   239,   240
   241,   242,   243,   244,   245,   246,   247,   248,   249,   250,   251,   252,   253,   254,   255,   256
   257,   258,   259,   260,   261,   262,   263,   264,   265,   266,   267,   268,   269,   270,   271,   272
   273,   274,   275,   276,   277,   278,   279,   280,   281,   282,   283,   284,   285,   286,   287,   288
   289,   290,   291,   292,   293,   294,   295,   296,   297,   298,   299,   300,   301,   302,   303,   304
   305,   306,   307,   308,   309,   310,   311,   312,   313,   314,   315,   316,   317,   318,   319,   320
** ... 1548 like lines cut
*Nset, nset=RP_Bottom
 2,
*Nset, nset=RP_Top
 1,
*Nset, nset=TopNodes, instance=ASSEMBLY20
   564,   567,  1083,  1086,  1927,  1928,  1929,  1930,  1931,  1932,  1933,  1934,  1935,  1936,  1937,  1938
  1939,  1940,  1941,  1942,  1943,  1944,  1945,  1946,  1947,  1948,  1949,  1950,  1951,  1952,  1953,  1954
  1955,  1956,  1957,  1958,  1959,  1960,  1961,  1962,  1963,  1964,  1965,  1966,  1967,  1968,  1969,  1970
  1971,  1972,  1973,  1974,  1975,  1976,  1977,  1978,  1979,  1980,  1981,  1982,  1983,  1984,  1985,  1986
  1987,  1988,  1989,  1990,  1991,  1992,  1993,  1994,  1995,  1996,  1997,  1998,  1999,  2000,  2001,  2002
  2003,  2004,  2005,  2006,  2007,  2008,  2009,  2010,  2011,  2012,  2013,  2014,  2015,  2016,  2017,  2018
  2019,  2020,  2021,  2022,  2023,  2024,  2025,  2026,  2027,  2028,  2029,  2030,  2031,  2032,  2033,  2034
  2035,  2036,  2037,  2038,  2039,  2040,  2041,  2042,  2043,  2044,  2045,  2046,  2047,  2048,  2049,  2050
  2887,  2888,  2889,  2890,  2891,  2892,  2893,  2894,  2895,  2896,  2897,  2898,  2899,  2900,  2901,  2902
  2903,  2904,  2905,  2906,  2907,  2908,  2909,  2910,  2911,  2912,  2913,  2914,  2915,  2916,  2917,  2918
  2919,  2920,  2921,  2922,  2923,  2924,  2925,  2926,  2927,  2928,  2929,  2930,  2931,  2932,  2933,  2934
  2935,  2936,  2937,  2938,  2939,  2940,  2941,  2942,  2943,  2944,  2945,  2946,  2947,  2948,  2949,  2950
  2951,  2952,  2953,  2954,  2955,  2956,  2957,  2958,  2959,  2960,  2961,  2962,  2963,  2964,  2965,  2966
  2967,  2968,  2969,  2970,  2971,  2972,  2973,  2974,  2975,  2976,  2977,  2978,  2979,  2980,  2981,  2982
  2983,  2984,  2985,  2986,  2987,  2988,  2989,  2990,  2991,  2992,  2993,  2994,  2995,  2996,  2997,  2998
  2999,  3000,  3001,  3002,  3003,  3004,  3005,  3006,  3007,  3008,  3009,  3010,  5753, 17038
*Nset, nset=_PickedSet7, internal
 1,
*Nset, nset=_PickedSet8, internal
 2,
*Surface, type=NODE, name=BottomNodes_CNS_, internal
BottomNodes, 1.
*Surface, type=NODE, name=TopNodes_CNS_, internal
TopNodes, 1.
** Constraint: BottomCoupling
*Coupling, constraint name=BottomCoupling, ref node=_PickedSet8, surface=BottomNodes_CNS_
*Kinematic
** Constraint: TopCoupling
*Coupling, constraint name=TopCoupling, ref node=_PickedSet7, surface=TopNodes_CNS_
*Kinematic
*End Assembly
*Amplitude, name=LoadAmplitude
             0.,              0.,              1.,              4.,              2.,              0.,              3.,             -4.
             4.,              0.
** 
** MATERIALS
** 
*Material, name=Steel
*Elastic
210000., 0.3
*Plastic
235.,0.
** 
** BOUNDARY CONDITIONS
** 
** Name: FixBottomRP Type: /
*Boundary
RP_Bottom, 1, 1
RP_Bottom, 2, 2
RP_Bottom, 3, 3
RP_Bottom, 4, 4
RP_Bottom, 5, 5
RP_Bottom, 6, 6
** Name: RestrictZIntermediateNodes Type: /
*Boundary
IntermediateNodes, 3, 3
IntermediateNodes, 4, 4
IntermediateNodes, 5, 5
** ----------------------------------------------------------------
** 
** STEP: Step1
** 
*Step, name=Step1, nlgeom=YES, inc=500
Step to apply x-direction load on RP_Top
*Static
0.01, 4., 1e-10, 0.1
** 
** BOUNDARY CONDITIONS
** 
** Name: LoadTopRP Type: /
*Boundary, amplitude=LoadAmplitude
RP_Top, 1, 1, 1.
RP_Top, 2, 2
RP_Top, 3, 3
RP_Top, 4, 4
RP_Top, 5, 5
RP_Top, 6, 6
** 
** OUTPUT REQUESTS
** 
*Restart, write, frequency=0
** 
** FIELD OUTPUT: MisesAndDisplacement
** 
*Output, field, time interval=1.
*Node Output
U, 
*Element Output, directions=YES
S, 
** 
** FIELD OUTPUT: RP_Top_Output
** 
*Output, field, number interval=64
*Node Output, nset=RP_Top
RF, U
*Output, history, frequency=0
*End Step
