*Heading
 Job for Model
** Job name: 10 Model name: MODEL10
** Generated by: Abaqus/CAE 2020
*Preprint, echo=NO, model=NO, history=NO, contact=NO
**
** PARTS
**
*Part, name=PART10
*Node
      1,    70.991333,   197.624527,           4.
      2,    70.991333,   195.705841,           4.
      3,    70.991333,   195.705841,           0.
      4,    70.991333,   197.624527,           0.
      5,   69.0726471,   195.705841,           4.
      6,   69.0726471,   195.705841,           0.
      7,   69.0726471,   197.624527,           0.
      8,   69.0726471,   197.624527,           4.
      9,   65.2352829,   59.4792252,           4.
     10,   65.2352829,   57.5605431,           4.
     11,   65.2352829,   57.5605431,           0.
     12,   65.2352829,   59.4792252,           0.
     13,    63.316597,   57.5605431,           4.
     14,    63.316597,   57.5605431,           0.
     15,    63.316597,   59.4792252,           0.
     16,    63.316597,   59.4792252,           4.
     17,   245.591644,   1.91868472,           4.
     18,   245.591644,           0.,           4.
     19,   245.591644,           0.,           0.
     20,   245.591644,   1.91868472,           0.
** ... 16622 like lines cut
*Element, type=C3D8R
1, 8, 5, 6, 7, 1, 2, 3, 4
2, 16, 13, 14, 15,  9, 10, 11, 12
3, 24, 21, 22, 23, 17, 18, 19, 20
   4,  5220,    40,    39,    38, 12536,   674,   675,   676
   5,  8109,  3279,    40,  5220, 15425, 10595,   674, 12536
   6,    37,  2011,  4946,    38,   677,  9327, 12262,   676
   7,  4867,  4848,  1425,  1424, 12183, 12164,  1804,  1805
   8,  1428,  1427,  4653,  3449,  1801,  1802, 11969, 10765
   9,  2064,    32,  3449,  4653,  9380,   682, 10765, 11969
  10,  1431,  1430,  3436,  3283,  1798,  1799, 10752, 10599
  11,  1431,  3283,  1264,  3286,  1798, 10599,  1636, 10602
  12,  1263,    25,  4599,  3289,  1637,   637, 11915, 10605
  13,  1285,  4710,  8034,  1286,  1639, 12026, 15350,  1638
  14,  2061,  8035,    75,  8034,  9377, 15351,   639, 15350
  15,  1263,  3289,  3286,  1264,  1637, 10605, 10602,  1636
  16,    26,  8031,    28,    27,   636, 15347,   686,   687
  17,  1266,    28,  8031,    31,  1658,   686, 15347,   683
  18,  5006,  3449,    32,    31, 12322, 10765,   682,   683
  19,  2064,  2076,  1267,    32,  9380,  9392,  1657,   682
  20,    33,  1267,  2076,  1268,   681,  1657,  9392,  1656
** ... 7829 like lines cut
*Nset, nset=_PickedSet345, internal, generate
     1,  16642,      1
*Elset, elset=_PickedSet345, internal, generate
    1,  7849,     1
** Section: SteelSection
*Solid Section, elset=_PickedSet345, material=Steel
,
*End Part
**  
**
** ASSEMBLY
**
*Assembly, name=Assembly
**  
*Instance, name=ASSEMBLY10, part=PART10
*End Instance
**  
*Node
      1,   122.795822,   245.591644,           2.
*Node
      2,   122.795822,           0.,           2.
*Nset, nset=BottomNodes, instance=ASSEMBLY10
   18,   19,   21,   22,  509,  510,  519,  520, 1116, 1117, 1240, 1241, 1400, 1401, 1402, 1403
 1404, 1405, 1406, 1407, 1408, 1409, 1410, 1411, 1412, 1413, 1414, 1415, 1416, 1417, 1418, 1419
 1420, 1421, 1422, 1423, 1424, 1425, 1426, 1427, 1428, 1429, 1430, 1431, 1432, 1433, 1434, 1435
 1436, 1437, 1438, 1439, 1440, 1441, 1442, 1443, 1444, 1445, 1446, 1447, 1448, 1449, 1450, 1451
 1452, 1453, 1454, 1455, 1456, 1457, 1458, 1771, 1772, 1773, 1774, 1775, 1776, 1777, 1778, 1779
 1780, 1781, 1782, 1783, 1784, 1785, 1786, 1787, 1788, 1789, 1790, 1791, 1792, 1793, 1794, 1795
 1796, 1797, 1798, 1799, 1800, 1801, 1802, 1803, 1804, 1805, 1806, 1807, 1808, 1809, 1810, 1811
 1812, 1813, 1814, 1815, 1816, 1817, 1818, 1819, 1820, 1821, 1822, 1823, 1824, 1825, 1826, 1827
 1828, 1829
*Nset, nset=IntermediateNodes, instance=ASSEMBLY10
     1,     2,     3,     4,     5,     6,     7,     8,     9,    10,    11,    12,    13,    14,    15,    16
    17,    20,    23,    24,    25,    26,    27,    28,    29,    30,    31,    32,    33,    34,    35,    36
    37,    38,    39,    40,    41,    42,    43,    44,    45,    46,    47,    48,    49,    50,    51,    52
    53,    54,    55,    56,    57,    58,    59,    60,    61,    62,    63,    64,    65,    66,    67,    68
    69,    70,    71,    72,    73,    74,    75,    76,    77,    78,    79,    80,    81,    82,    83,    84
    85,    86,    87,    88,    89,    90,    91,    92,    93,    94,    95,    96,    97,    98,    99,   100
   101,   102,   103,   104,   105,   106,   107,   108,   109,   110,   111,   112,   113,   114,   115,   116
   117,   118,   119,   120,   121,   122,   123,   124,   125,   126,   127,   128,   129,   130,   131,   132
   133,   134,   135,   136,   137,   138,   139,   140,   141,   142,   143,   144,   145,   146,   147,   148
   149,   150,   151,   152,   153,   154,   155,   156,   157,   158,   159,   160,   161,   162,   163,   164
   165,   166,   167,   168,   169,   170,   171,   172,   173,   174,   175,   176,   177,   178,   179,   180
   181,   182,   183,   184,   185,   186,   187,   188,   189,   190,   191,   192,   193,   194,   195,   196
   197,   198,   199,   200,   201,   202,   203,   204,   205,   206,   207,   208,   209,   210,   211,   212
   213,   214,   215,   216,   217,   218,   219,   220,   221,   222,   223,   224,   225,   226,   227,   228
   229,   230,   231,   232,   233,   234,   235,   236,   237,   238,   239,   240,   241,   242,   243,   244
   245,   246,   247,   248,   249,   250,   251,   252,   253,   254,   255,   256,   257,   258,   259,   260
   261,   262,   263,   264,   265,   266,   267,   268,   269,   270,   271,   272,   273,   274,   275,   276
   277,   278,   279,   280,   281,   282,   283,   284,   285,   286,   287,   288,   289,   290,   291,   292
   293,   294,   295,   296,   297,   298,   299,   300,   301,   302,   303,   304,   305,   306,   307,   308
   309,   310,   311,   312,   313,   314,   315,   316,   317,   318,   319,   320,   321,   322,   323,   324
** ... 1008 like lines cut
*Nset, nset=RP_Bottom
 2,
*Nset, nset=RP_Top
 1,
*Nset, nset=TopNodes, instance=ASSEMBLY10
  537,  538,  541,  542,  561,  562, 1198, 1199, 1218, 1219, 1222, 1223, 1527, 1529, 1530, 1531
 1532, 1533, 1534, 1535, 1536, 1537, 1538, 1539, 1540, 1554, 1555, 1556, 1557, 1558, 1559, 1560
 1561, 1562, 1563, 1564, 1565, 1566, 1567, 1568, 1899, 1900, 1901, 1902, 1903, 1904, 1905, 1906
 1907, 1908, 1909, 1910, 1911, 1912, 1913, 1927, 1928, 1929, 1930, 1931, 1932, 1933, 1934, 1935
 1936, 1937, 1938, 1940
*Nset, nset=_PickedSet7, internal
 1,
*Nset, nset=_PickedSet8, internal
 2,
*Surface, type=NODE, name=BottomNodes_CNS_, internal
BottomNodes, 1.
*Surface, type=NODE, name=TopNodes_CNS_, internal
TopNodes, 1.
** Constraint: BottomCoupling
*Coupling, constraint name=BottomCoupling, ref node=_PickedSet8, surface=BottomNodes_CNS_
*Kinematic
** Constraint: TopCoupling
*Coupling, constraint name=TopCoupling, ref node=_PickedSet7, surface=TopNodes_CNS_
*Kinematic
*End Assembly
*Amplitude, name=LoadAmplitude
             0.,              0.,              1.,              4.,              2.,              0.,              3.,             -4.
             4.,              0.
** 
** MATERIALS
** 
*Material, name=Steel
*Elastic
210000., 0.3
*Plastic
235.,0.
** 
** BOUNDARY CONDITIONS
** 
** Name: FixBottomRP Type: /
*Boundary
RP_Bottom, 1, 1
RP_Bottom, 2, 2
RP_Bottom, 3, 3
RP_Bottom, 4, 4
RP_Bottom, 5, 5
RP_Bottom, 6, 6
** Name: RestrictZIntermediateNodes Type: /
*Boundary
IntermediateNodes, 3, 3
IntermediateNodes, 4, 4
IntermediateNodes, 5, 5
** ----------------------------------------------------------------
** 
** STEP: Step1
** 
*Step, name=Step1, nlgeom=YES, inc=500
Step to apply x-direction load on RP_Top
*Static
0.01, 4., 1e-10, 0.1
** 
** BOUNDARY CONDITIONS
** 
** Name: LoadTopRP Type: /
*Boundary, amplitude=LoadAmplitude
RP_Top, 1, 1, 1.
RP_Top, 2, 2
RP_Top, 3, 3
RP_Top, 4, 4
RP_Top, 5, 5
RP_Top, 6, 6
** 
** OUTPUT REQUESTS
** 
*Restart, write, frequency=0
** 
** FIELD OUTPUT: MisesAndDisplacement
** 
*Output, field, time interval=1.
*Node Output
U, 
*Element Output, directions=YES
S, 
** 
** FIELD OUTPUT: RP_Top_Output
** 
*Output, field, number interval=64
*Node Output, nset=RP_Top
RF, U
*Output, history, frequency=0
*End Step
