*Heading
 Job for Model
** Job name: 1 Model name: MODEL1
** Generated by: Abaqus/CAE 2020
*Preprint, echo=NO, model=NO, history=NO, contact=NO
**
** PARTS
**
*Part, name=PART1
*Node
      1,    216.84166,   7.81411362,           0.
      2,   220.748703,   7.81411362,           0.
      3,   220.748703,   11.7211704,           0.
      4,    222.70224,   11.7211704,           0.
      5,    222.70224,    19.535284,           0.
      6,   212.934601,    19.535284,           0.
      7,   212.934601,   25.3958702,           0.
      8,   210.981064,   25.3958702,           0.
      9,   210.981064,   27.3493977,           0.
     10,   203.166962,   27.3493977,           0.
     11,   203.166962,   33.2099838,           0.
     12,   197.306366,   33.2099838,           0.
     13,   197.306366,   35.1635132,           0.
     14,   193.399307,   35.1635132,           0.
     15,   193.399307,   33.2099838,           0.
     16,   191.445786,   33.2099838,           0.
     17,   191.445786,   35.1635132,           0.
     18,   181.678146,   35.1635132,           0.
     19,   181.678146,   33.2099838,           0.
     20,   179.724609,   33.2099838,           0.
** ... 13868 like lines cut
*Element, type=C3D8R
   1,  2291,   294,  2146,  2217,  9235,  7238,  9090,  9161
   2,  2291,  5338,  5999,  1939,  9235, 12282, 12943,  8883
   3,  1544,  1617,  1534,   292,  8488,  8561,  8478,  7236
   4,  1121,  1534,  1536,  1122,  8065,  8478,  8480,  8066
   5,  1321,    86,    85,    84,  8265,  7030,  7029,  7028
   6,  1261,    86,  1321,  1304,  8205,  7030,  8265,  8248
   7,  1261,  5916,  1339,  1305,  8205, 12860,  8283,  8249
   8,  1305,    87,    86,  1261,  8249,  7031,  7030,  8205
   9,  1405,  5897,  1355,  1340,  8349, 12841,  8299,  8284
  10,     9,  1320,  1355,  1418,  6953,  8264,  8299,  8362
  11,    10,  1099,  1377,  1100,  6954,  8043,  8321,  8044
  12,  1480,  5897,  1422,  1361,  8424, 12841,  8366,  8305
  13,  1422,  1316,   103,  1361,  8366,  8260,  7047,  8305
  14,  1360,   104,  1277,  1315,  8304,  7048,  8221,  8259
  15,  5925,  1417,  1315,  1358, 12869,  8361,  8259,  8302
  16,  1712,  1543,  1471,  1591,  8656,  8487,  8415,  8535
  17,  2987,  6266,  6204,  6217,  9931, 13210, 13148, 13161
  18,   460,  3066,  2922,  2964,  7404, 10010,  9866,  9908
  19,  1038,  2995,  2709,  2634,  7982,  9939,  9653,  9578
  20,   147,  1153,  2317,  2340,  7091,  8097,  9261,  9284
** ... 6723 like lines cut
*Nset, nset=_PickedSet183, internal, generate
     1,  13888,      1
*Elset, elset=_PickedSet183, internal, generate
    1,  6743,     1
** Section: SteelSection
*Solid Section, elset=_PickedSet183, material=Steel
,
*End Part
**  
**
** ASSEMBLY
**
*Assembly, name=Assembly
**  
*Instance, name=ASSEMBLY1, part=PART1
*End Instance
**  
*Node
      1,   125.025818,   250.051636,           2.
*Node
      2,   125.025818,           0.,           2.
*Nset, nset=BottomNodes, instance=ASSEMBLY1
  158,  159,  160,  161,  162,  163,  164,  165,  166,  167,  168,  169,  170,  171,  172,  173
  174,  175,  176,  177,  178,  179,  180,  181,  182,  183,  184,  185,  186,  187,  188,  189
  190, 1164, 1165, 1166, 1167, 1168, 1169, 1170, 1171, 1172, 1173, 1174, 1175, 1176, 1177, 1178
 1179, 1180, 1181, 1182, 1183, 1184, 1185, 1186, 1187, 1188, 1189, 1190, 1191, 1192, 1193, 1194
 1195, 7102, 7103, 7104, 7105, 7106, 7107, 7108, 7109, 7110, 7111, 7112, 7113, 7114, 7115, 7116
 7117, 7118, 7119, 7120, 7121, 7122, 7123, 7124, 7125, 7126, 7127, 7128, 7129, 7130, 7131, 7132
 7133, 7134, 8108, 8109, 8110, 8111, 8112, 8113, 8114, 8115, 8116, 8117, 8118, 8119, 8120, 8121
 8122, 8123, 8124, 8125, 8126, 8127, 8128, 8129, 8130, 8131, 8132, 8133, 8134, 8135, 8136, 8137
 8138, 8139
*Nset, nset=IntermediateNodes, instance=ASSEMBLY1
     1,     2,     3,     4,     5,     6,     7,     8,     9,    10,    11,    12,    13,    14,    15,    16
    17,    18,    19,    20,    21,    22,    23,    24,    25,    26,    27,    28,    29,    30,    31,    32
    33,    34,    35,    36,    37,    38,    39,    40,    41,    42,    43,    44,    45,    46,    47,    48
    49,    50,    51,    52,    53,    54,    55,    56,    57,    58,    59,    60,    61,    62,    63,    64
    65,    66,    67,    68,    69,    70,    71,    72,    73,    74,    75,    76,    77,    78,    79,    80
    81,    82,    83,    84,    85,    86,    87,    88,    89,    90,    91,    92,    93,    94,    95,    96
    97,    98,    99,   100,   101,   102,   103,   104,   105,   106,   107,   108,   109,   110,   111,   112
   113,   114,   115,   116,   117,   118,   119,   120,   121,   122,   123,   124,   125,   126,   127,   128
   129,   130,   131,   132,   133,   134,   135,   136,   137,   138,   139,   140,   141,   142,   143,   144
   145,   146,   147,   148,   149,   150,   151,   152,   153,   154,   155,   156,   157,   191,   192,   193
   194,   195,   196,   197,   198,   199,   200,   201,   202,   203,   204,   205,   206,   207,   208,   209
   210,   211,   212,   213,   214,   215,   216,   217,   218,   219,   220,   221,   222,   223,   257,   258
   259,   260,   261,   262,   263,   264,   265,   266,   267,   268,   269,   270,   271,   272,   273,   274
   275,   276,   277,   278,   279,   280,   281,   282,   283,   284,   285,   286,   287,   288,   289,   290
   291,   292,   293,   294,   295,   296,   297,   298,   299,   300,   301,   302,   303,   304,   305,   306
   307,   308,   309,   310,   311,   312,   313,   314,   315,   316,   317,   318,   319,   320,   321,   322
   323,   324,   325,   326,   327,   328,   329,   330,   331,   332,   333,   334,   335,   336,   337,   338
   339,   340,   341,   342,   343,   344,   345,   346,   347,   348,   349,   350,   351,   352,   353,   354
   355,   356,   357,   358,   359,   360,   361,   362,   363,   364,   365,   366,   367,   368,   369,   370
   371,   372,   373,   374,   375,   376,   377,   378,   379,   380,   381,   382,   383,   384,   385,   386
** ... 832 like lines cut
*Nset, nset=RP_Bottom
 2,
*Nset, nset=RP_Top
 1,
*Nset, nset=TopNodes, instance=ASSEMBLY1
  224,  225,  226,  227,  228,  229,  230,  231,  232,  233,  234,  235,  236,  237,  238,  239
  240,  241,  242,  243,  244,  245,  246,  247,  248,  249,  250,  251,  252,  253,  254,  255
  256, 1228, 1229, 1230, 1231, 1232, 1233, 1234, 1235, 1236, 1237, 1238, 1239, 1240, 1241, 1242
 1243, 1244, 1245, 1246, 1247, 1248, 1249, 1250, 1251, 1252, 1253, 1254, 1255, 1256, 1257, 1258
 7168, 7169, 7170, 7171, 7172, 7173, 7174, 7175, 7176, 7177, 7178, 7179, 7180, 7181, 7182, 7183
 7184, 7185, 7186, 7187, 7188, 7189, 7190, 7191, 7192, 7193, 7194, 7195, 7196, 7197, 7198, 7199
 7200, 8172, 8173, 8174, 8175, 8176, 8177, 8178, 8179, 8180, 8181, 8182, 8183, 8184, 8185, 8186
 8187, 8188, 8189, 8190, 8191, 8192, 8193, 8194, 8195, 8196, 8197, 8198, 8199, 8200, 8201, 8202
*Nset, nset=_PickedSet7, internal
 1,
*Nset, nset=_PickedSet8, internal
 2,
*Surface, type=NODE, name=BottomNodes_CNS_, internal
BottomNodes, 1.
*Surface, type=NODE, name=TopNodes_CNS_, internal
TopNodes, 1.
** Constraint: BottomCoupling
*Coupling, constraint name=BottomCoupling, ref node=_PickedSet8, surface=BottomNodes_CNS_
*Kinematic
** Constraint: TopCoupling
*Coupling, constraint name=TopCoupling, ref node=_PickedSet7, surface=TopNodes_CNS_
*Kinematic
*End Assembly
*Amplitude, name=LoadAmplitude
             0.,              0.,              1.,              4.,              2.,              0.,              3.,             -4.
             4.,              0.
** 
** MATERIALS
** 
*Material, name=Steel
*Elastic
210000., 0.3
*Plastic
235.,0.
** 
** BOUNDARY CONDITIONS
** 
** Name: FixBottomRP Type: /
*Boundary
RP_Bottom, 1, 1
RP_Bottom, 2, 2
RP_Bottom, 3, 3
RP_Bottom, 4, 4
RP_Bottom, 5, 5
RP_Bottom, 6, 6
** Name: RestrictZIntermediateNodes Type: /
*Boundary
IntermediateNodes, 3, 3
IntermediateNodes, 4, 4
IntermediateNodes, 5, 5
** ----------------------------------------------------------------
** 
** STEP: Step1
** 
*Step, name=Step1, nlgeom=YES, inc=500
Step to apply x-direction load on RP_Top
*Static
0.01, 4., 1e-10, 0.1
** 
** BOUNDARY CONDITIONS
** 
** Name: LoadTopRP Type: /
*Boundary, amplitude=LoadAmplitude
RP_Top, 1, 1, 1.
RP_Top, 2, 2
RP_Top, 3, 3
RP_Top, 4, 4
RP_Top, 5, 5
RP_Top, 6, 6
** 
** OUTPUT REQUESTS
** 
*Restart, write, frequency=0
** 
** FIELD OUTPUT: MisesAndDisplacement
** 
*Output, field, time interval=1.
*Node Output
U, 
*Element Output, directions=YES
S, 
** 
** FIELD OUTPUT: RP_Top_Output
** 
*Output, field, number interval=64
*Node Output, nset=RP_Top
RF, U
*Output, history, frequency=0
*End Step
