*Heading
 Job for Model
** Job name: 1 Model name: MODEL1
** Generated by: Abaqus/CAE 2018
*Preprint, echo=NO, model=NO, history=NO, contact=NO
**
** PARTS
**
*Part, name=PART1
*Node
      1,         161.,          93.,           0.
      2,         161.,          92.,           0.
      3,         162.,          92.,           0.
      4,         162.,          91.,           0.
      5,         162.,          90.,           0.
      6,         162.,          89.,           0.
      7,         162.,          88.,           0.
      8,         162.,          87.,           0.
      9,         162.,          86.,           0.
     10,         162.,          85.,           0.
     11,         162.,          84.,           0.
     12,         162.,          83.,           0.
     13,         162.,          82.,           0.
     14,         162.,          81.,           0.
     15,         162.,          80.,           0.
     16,         162.,          79.,           0.
     17,         162.,          78.,           0.
     18,         162.,          77.,           0.
     19,         162.,          76.,           0.
     20,         162.,          75.,           0.
** ... 44838 like lines cut
*Element, type=C3D8R
   1,     2,     1,  4420,  7124,   674,   675,  4493, 10245
   2,  7084,  6342,  7554,  7636, 10205,  9463, 10675, 10757
   3,  6343,  6899,  8722,  9043,  9464, 10020, 11843, 12164
   4,  6369,  7532,  7853,  7773,  9490, 10653, 10974, 10894
   5,  8048,  7964,  7915,  8037, 11169, 11085, 11036, 11158
   6,  8243,  6388,  9067,  8198, 11364,  9509, 12188, 11319
   7,  8443,  6401,  8415,  8893, 11564,  9522, 11536, 12014
   8,  7519,  8381,  8351,    54, 10640, 11502, 11472,   622
   9,  7519,    54,    53,    52, 10640,   622,   623,   624
  10,  6341,     4,     3,     2,  9462,   672,   673,   674
  11,  6899,     5,     4,  6341, 10020,   671,   672,  9462
  12,     5,  6899,  6343,     6,   671, 10020,  9464,   670
  13,  6900,     7,     6,  6343, 10021,   669,   670,  9464
  14,  6368,     8,     7,  6900,  9489,   668,   669, 10021
  15,  6901,     9,     8,  6368, 10022,   667,   668,  9489
  16,     9,  6901,  6384,    10,   667, 10022,  9505,   666
  17,  6902,    11,    10,  6384, 10023,   665,   666,  9505
  18,  6396,    12,    11,  6902,  9517,   664,   665, 10023
  19,  7415,  7622,  6397,  9164, 10536, 10743,  9518, 12285
  20,  9250,  6403,  9323,  8287, 12371,  9524, 12444, 11408
** ... 20820 like lines cut
*Nset, nset=_PickedSet820, internal, generate
     1,  44858,      1
*Elset, elset=_PickedSet820, internal, generate
     1,  20840,      1
** Section: SteelSection
*Solid Section, elset=_PickedSet820, material=Steel
,
*End Part
**  
**
** ASSEMBLY
**
*Assembly, name=Assembly
**  
*Instance, name=ASSEMBLY1, part=PART1
*End Instance
**  
*Node
      1,         237.,          93.,           5.
*Node
      2,         237.,           2.,           5.
*Nset, nset=BottomNodes, instance=ASSEMBLY1
  201,  202,  216,  217,  459,  460,  474,  475,  951,  952, 1144, 1145, 1527, 1528, 1720, 1721
 2022, 2023, 2430, 2431, 2768, 2769, 2860, 2861, 3150, 3151, 3242, 3243, 3652, 3653, 3729, 3730
 4073, 4074, 4150, 4151, 4323, 4324, 4325, 4326, 4327, 4328, 4329, 4330, 4331, 4332, 4333, 4334
 4335, 4336, 4337, 4346, 4347, 4348, 4349, 4350, 4421, 4422, 4423, 4424, 4425, 4434, 4435, 4436
 4437, 4438, 4439, 4440, 4441, 4442, 4443, 4444, 4445, 4446, 4447, 4448, 4569, 4570, 4571, 4572
 4573, 4574, 4575, 4576, 4577, 4578, 4579, 4580, 4581, 4582, 4583, 4590, 4591, 4592, 4593, 4594
 4595, 4596, 4597, 4598, 4599, 4600, 4601, 4602, 4603, 4604, 4605, 4606, 4607, 4608, 4609, 4610
 4611, 4612, 4613, 4614, 4615, 4616, 4617, 4618, 4619, 4620, 4621, 4712, 4713, 4714, 4715, 4716
 4717, 4718, 4719, 4720, 4721, 4722, 4723, 4724, 4725, 4726, 4727, 4728, 4729, 4730, 4731, 4732
 4733, 4734, 4735, 4736, 4737, 4738, 4739, 4740, 4741, 4742, 4743, 4750, 4751, 4752, 4753, 4754
 4755, 4756, 4757, 4758, 4759, 4760, 4761, 4762, 4763, 4764, 4843, 4844, 4845, 4846, 4847, 4848
 4849, 4850, 4851, 4852, 4853, 4854, 4855, 4856, 4857, 4858, 4859, 4860, 4861, 4862, 4863, 4864
 4865, 4866, 4867, 4868, 4869, 4870, 4871, 4872, 4873, 4874, 4875, 4876, 4877, 4878, 4879, 4880
 4881, 4882, 4883, 4884, 4885, 4886, 4887, 4888, 4889, 4890, 4891, 4892, 4893, 4894, 4895, 4896
 4897, 4898, 4899, 4900, 4901, 4902, 4903, 4904, 4905, 4906, 4907, 4908, 4909, 4910, 4911, 4912
 4913, 4914, 4915, 4916, 4917, 4918, 5143, 5144, 5145, 5146, 5147, 5148, 5149, 5150, 5151, 5152
 5153, 5154, 5155, 5156, 5157, 5158, 5159, 5160, 5161, 5162, 5163, 5164, 5165, 5166, 5167, 5168
 5169, 5170, 5171, 5172, 5173, 5174, 5175, 5176, 5177, 5178, 5179, 5180, 5181, 5182, 5183, 5184
 5185, 5186, 5187, 5188, 5189, 5190, 5191, 5192, 5193, 5194, 5195, 5196, 5197, 5198, 5199, 5200
 5201, 5202, 5203, 5204, 5205, 5206, 5207, 5208, 5209, 5210, 5211, 5212, 5213, 5214, 5215, 5216
** ... 20 like lines cut
*Nset, nset=IntermediateNodes, instance=ASSEMBLY1
     2,     3,     4,     5,     6,     7,     8,     9,    10,    11,    12,    13,    14,    15,    16,    17
    18,    19,    20,    21,    22,    23,    24,    25,    26,    27,    28,    29,    30,    31,    32,    33
    34,    35,    36,    37,    38,    39,    40,    41,    42,    43,    44,    45,    46,    47,    48,    49
    50,    51,    52,    53,    54,    55,    56,    57,    58,    59,    60,    61,    62,    63,    64,    65
    66,    67,    68,    69,    70,    71,    72,    73,    74,    75,    76,    77,    78,    79,    80,    81
    82,    83,    84,    85,    86,    87,    88,    89,    90,    91,    92,    93,    94,    95,    96,    97
    98,    99,   100,   101,   102,   103,   104,   105,   106,   107,   108,   109,   110,   111,   112,   113
   114,   115,   116,   117,   118,   119,   120,   121,   122,   123,   124,   125,   126,   127,   128,   129
   130,   131,   132,   133,   134,   135,   136,   137,   138,   139,   140,   141,   142,   143,   144,   145
   146,   147,   148,   149,   150,   151,   152,   153,   154,   155,   156,   157,   158,   159,   160,   161
   162,   163,   164,   165,   166,   167,   168,   169,   170,   171,   172,   173,   174,   175,   176,   177
   178,   179,   180,   181,   182,   183,   184,   185,   186,   187,   188,   189,   190,   191,   192,   193
   194,   195,   196,   197,   198,   199,   200,   203,   204,   205,   206,   207,   208,   209,   210,   211
   212,   213,   214,   215,   218,   219,   220,   221,   222,   223,   224,   225,   226,   227,   228,   229
   230,   231,   232,   233,   234,   235,   236,   237,   238,   239,   240,   241,   242,   243,   244,   245
   246,   247,   248,   249,   250,   251,   252,   253,   254,   255,   256,   257,   258,   259,   260,   261
   262,   263,   264,   265,   266,   267,   268,   269,   270,   271,   272,   273,   274,   275,   276,   277
   278,   279,   280,   281,   282,   283,   284,   285,   286,   287,   288,   289,   290,   291,   292,   293
   294,   295,   296,   297,   298,   299,   300,   301,   302,   303,   304,   305,   306,   307,   308,   309
   310,   311,   312,   313,   314,   315,   316,   317,   318,   319,   320,   321,   322,   323,   324,   325
** ... 2780 like lines cut
*Nset, nset=RP_Bottom
 2,
*Nset, nset=RP_Top
 1,
*Nset, nset=TopNodes, instance=ASSEMBLY1
    1,  415,  416,  428,  675,  676,  688,  689,  857, 1247, 1248, 1424, 1425, 1815, 1816, 1992
 2121, 2122, 2332, 2670, 2671, 2958, 2959, 3052, 3053, 3340, 3341, 3434, 3525, 3856, 3947, 4278
 4392, 4393, 4394, 4395, 4396, 4397, 4398, 4399, 4400, 4401, 4402, 4403, 4404, 4405, 4406, 4407
 4408, 4409, 4418, 4419, 4420, 4493, 4494, 4495, 4504, 4505, 4506, 4507, 4508, 4509, 4510, 4511
 4512, 4513, 4514, 4515, 4516, 4517, 4518, 4519, 4520, 4521, 4631, 4632, 4633, 4634, 4635, 4636
 4637, 4638, 4639, 4640, 4641, 4642, 4643, 4644, 4645, 4646, 4647, 4648, 4649, 4650, 4651, 4652
 4653, 4654, 4655, 4656, 4657, 4658, 4659, 4660, 4661, 4670, 4671, 4672, 4673, 4674, 4675, 4676
 4677, 4678, 4679, 4680, 4681, 4682, 4683, 4684, 4685, 4686, 4687, 4688, 4689, 4690, 4691, 4692
 4693, 4694, 4695, 4696, 4697, 4698, 4699, 4700, 4701, 4702, 4771, 4772, 4773, 4774, 4775, 4776
 4777, 4778, 4779, 4780, 4781, 4782, 4783, 4784, 4785, 4786, 4787, 4788, 4789, 4790, 4791, 4792
 4793, 4794, 4795, 4796, 4797, 4798, 4799, 4800, 4801, 4802, 4803, 4812, 4813, 4814, 4815, 4816
 4817, 4818, 4819, 4820, 4821, 4822, 4823, 4824, 4825, 4826, 4827, 4828, 4829, 4830, 4831, 4832
 4833, 4834, 4835, 4836, 4837, 4838, 4839, 4840, 4841, 4842, 4934, 4935, 4936, 4937, 4938, 4939
 4940, 4941, 4942, 4943, 4944, 4945, 4946, 4947, 4948, 4949, 4950, 4951, 4952, 4953, 4954, 4955
 4956, 4957, 4958, 4959, 4960, 4961, 4962, 4963, 4964, 4965, 4966, 4967, 4968, 4969, 4970, 4971
 4972, 4973, 4974, 4975, 4976, 4977, 4978, 4979, 4980, 4981, 4982, 4983, 4984, 4985, 4986, 4987
 4988, 4989, 4990, 4991, 4992, 4993, 4994, 4995, 4996, 4997, 4998, 4999, 5000, 5001, 5002, 5003
 5004, 5005, 5006, 5007, 5339, 5340, 5341, 5342, 5343, 5344, 5345, 5346, 5347, 5348, 5349, 5350
 5351, 5352, 5353, 5354, 5355, 5356, 5357, 5358, 5359, 5360, 5361, 5362, 5363, 5364, 5365, 5366
 5367, 5368, 5369, 5370, 5371, 5372, 5373, 5374, 5375, 5376, 5377, 5378, 5379, 5380, 5381, 5382
** ... 15 like lines cut
*Nset, nset=_PickedSet7, internal
 1,
*Nset, nset=_PickedSet8, internal
 2,
*Surface, type=NODE, name=BottomNodes_CNS_, internal
BottomNodes, 1.
*Surface, type=NODE, name=TopNodes_CNS_, internal
TopNodes, 1.
** Constraint: BottomCoupling
*Coupling, constraint name=BottomCoupling, ref node=_PickedSet8, surface=BottomNodes_CNS_
*Kinematic
** Constraint: TopCoupling
*Coupling, constraint name=TopCoupling, ref node=_PickedSet7, surface=TopNodes_CNS_
*Kinematic
*End Assembly
*Amplitude, name=LoadAmplitude
             0.,              0.,              1.,              1.,              2.,              0.,              3.,             -1.
             4.,              0.
** 
** MATERIALS
** 
*Material, name=Steel
*Elastic
210000., 0.3
*Plastic
235.,0.
** 
** BOUNDARY CONDITIONS
** 
** Name: FixBottomRP Type: Displacement/Rotation
*Boundary
RP_Bottom, 1, 1
RP_Bottom, 2, 2
RP_Bottom, 3, 3
RP_Bottom, 4, 4
RP_Bottom, 5, 5
RP_Bottom, 6, 6
** Name: RestrictZIntermediateNodes Type: Displacement/Rotation
*Boundary
IntermediateNodes, 3, 3
IntermediateNodes, 4, 4
IntermediateNodes, 5, 5
** ----------------------------------------------------------------
** 
** STEP: Step1
** 
*Step, name=Step1, nlgeom=YES, inc=500
Step to apply x-direction load on RP_Top
*Static
0.01, 4., 1e-10, 0.1
** 
** BOUNDARY CONDITIONS
** 
** Name: LoadTopRP Type: Displacement/Rotation
*Boundary, amplitude=LoadAmplitude
RP_Top, 1, 1, 1.
RP_Top, 2, 2
RP_Top, 3, 3
RP_Top, 4, 4
RP_Top, 5, 5
RP_Top, 6, 6
** 
** OUTPUT REQUESTS
** 
*Restart, write, frequency=0
** 
** FIELD OUTPUT: MisesAndDisplacement
** 
*Output, field, number interval=64
*Node Output
U, 
*Element Output, directions=YES
S, 
** 
** FIELD OUTPUT: RP_Top_Output
** 
*Node Output, nset=RP_Top
RF, U
*Output, history, frequency=0
*End Step
